!!>>>>>>>>>>>>>>>>>>>>>>>>>>>>>>>>>>>>>>>>>>>>>>>>>>>>>>>>>>>>>>>>>>>>>>
!! NEMO/OCE Configuration namelist : overwrite default values defined in SHARED/namelist_ref
!!>>>>>>>>>>>>>>>>>>>>>>>>>>>>>>>>>>>>>>>>>>>>>>>>>>>>>>>>>>>>>>>>>>>>>>
!                          AMM12 configuration                         !
!!======================================================================
!!              ***  Domain & Run management namelists  ***           !!
!!                                                                    !!
!!   namrun       parameters of the run
!!   namdom       space and time domain
!!   namcfg       parameters of the configuration                       (default: user defined GYRE)
!!   namwad       Wetting and drying                                    (default: OFF)
!!   namtsd       data: temperature & salinity                          (default: OFF)
!!   namcrs       coarsened grid (for outputs and/or TOP)               (ln_crs =T)
!!   namc1d       1D configuration options                              (ln_c1d =T)
!!   namc1d_dyndmp 1D newtonian damping applied on currents             (ln_c1d =T)
!!   namc1d_uvd   1D data (currents)                                    (ln_c1d =T)
!!======================================================================
!
!-----------------------------------------------------------------------
&namrun        !   parameters of the run
!-----------------------------------------------------------------------
   cn_exp         =  "medfs831"        !  experience name
   nn_istate      =       0            !  output the initial state (1) or not (0)
   nn_it000       =  @nn_it000@        !  first time step
   nn_itend       =  @nn_itend@        !  last  time step (std 1 day = 144)
   nn_date0       =  20210101          !  date at nit_0000 (format yyyymmdd) used if ln_rstart=F or (ln_rstart=T and nn_rstctl=0 or 1)
   nn_time0    =      0000             !  initial time of day in hhmm
   nn_leapy       =       1            !  Leap year calendar (1) or not (0)
   ln_rstart      = .@ln_rstart@.      !  start from rest (F) or from a restart file (T)
   nn_rstctl    =    2                 !  restart control ==> activated only if ln_rstart=T
   cn_ocerst_in   = "@RESTART_FILE@"   !  suffix of ocean restart name (input)
   cn_ocerst_out  = "restart"          !  suffix of ocean restart name (input)
   nn_stock       =    144             !  frequency of creation of a restart file (modulo referenced to 1)
   ln_mskland     = .true.             !  mask land points in NetCDF outputs
   ln_xios_read    = .true.            !  use XIOS to read restart file (only for a single file restart)
   nn_wxios = 1      !  use XIOS to write restart file 0 - no, 1 - single file output, 2 - multiple file output

/
!-----------------------------------------------------------------------
&namdom        !   time and space domain
!-----------------------------------------------------------------------
   ln_linssh   = .false.  !  =T  linear free surface  ==>>  model level are fixed in time
   rn_atfp     =   0.1    !  asselin time filter parameter
   ln_crs      = .false.  !  Logical switch for coarsening module      (T => fill namcrs)
   rn_Dt       =   600.   !  time step for the dynamics (and tracer if nn_acc=0)
   ln_meshmask = .false.  !  =T create a mesh file

/
!-----------------------------------------------------------------------
&namcfg        !   parameters of the configuration                      (default: user defined GYRE)
!-----------------------------------------------------------------------
   ln_read_cfg = .true.          !  (=T) read the domain configuration file
   cn_domcfg   = "domain_cfg.nc" ! domain configuration filename
   ln_closea   = .false.         !  F => suppress closed seas (defined by closea_mask field)
/
!-----------------------------------------------------------------------
&namtsd        !    Temperature & Salinity Data  (init/dmp)             (default: OFF)
!-----------------------------------------------------------------------
  !                             ! =T  read T-S fields for:
   ln_tsd_init = .@ln_tsd_init@.         !  ocean initialisation
   ln_tsd_dmp  = .false.        !  T-S restoring   (see namtra_dmp)

   cn_dir      = './'           !  root directory for the T-S data location
   !___________!_________________________!___________________!___________!_____________!________!___________!__________________!__________!_______________!
   !           !  file name              ! frequency (hours) ! variable  ! time interp.!  clim  ! 'yearly'/ ! weights filename ! rotation ! land/sea mask !
   !           !                         !  (if <0  months)  !   name    !   (logical) !  (T/F) ! 'monthly' !                  ! pairing  !    filename   !
   sn_tem = 'medfs831-eas8_01052160_restart.nc',  -1.              , 'tn',        .false.   , .false., 'yearly'  ,    ''            ,    ''    ,    ''
   sn_sal = 'medfs831-eas8_01052160_restart.nc',  -1               , 'sn',        .false.   , .false., 'yearly'  ,    ''            ,    ''    ,    ''
/
!-----------------------------------------------------------------------
&namtile        !   parameters of the tiling
!-----------------------------------------------------------------------
/
!!======================================================================
!!            ***  Surface Boundary Condition namelists  ***          !!
!!                                                                    !!
!!   namsbc          surface boundary condition manager                 (default: NO selection)
!!   namsbc_flx      flux               formulation                     (ln_flx     =T)
!!   namsbc_blk      Bulk formulae formulation                          (ln_blk     =T)
!!   namsbc_cpl      CouPLed            formulation                     ("key_oasis3" )
!!   namsbc_sas      Stand-Alone Surface module                         (SAS_SRC  only)
!!   namsbc_iif      Ice-IF: use observed ice cover                     (nn_ice = 1   )
!!   namtra_qsr      penetrative solar radiation                        (ln_traqsr  =T)
!!   namsbc_ssr      sea surface restoring term (for T and/or S)        (ln_ssr     =T)
!!   namsbc_rnf      river runoffs                                      (ln_rnf     =T)
!!   namsbc_apr      Atmospheric Pressure                               (ln_apr_dyn =T)
!!   namsbc_isf      ice shelf melting/freezing                         (ln_isfcav  =T : read (ln_read_cfg=T) or set or usr_def_zgr )
!!   namsbc_iscpl    coupling option between land ice model and ocean   (ln_isfcav  =T)
!!   namsbc_wave     external fields from wave model                    (ln_wave    =T)
!!   namberg         iceberg floats                                     (ln_icebergs=T)
!!======================================================================
!
!-----------------------------------------------------------------------
&namsbc        !   Surface Boundary Condition (surface module)          (default: NO selection)
!-----------------------------------------------------------------------
   nn_fsbc     = 1         !  frequency of SBC module call
   ln_usr      = .false.
   ln_flx      = .false.    !  flux formulation                          (T => fill namsbc_flx)
   ln_blk      = .true.    !  Bulk formulation                          (T => fill namsbc_blk )
   ln_abl      = .false.   !  ABL  formulation                          (T => fill namsbc_abl )
   ln_traqsr   = .true.   !  Light penetration in the ocean            (T => fill namtra_qsr)
   ln_ssr      = .false.   !  Sea Surface Restoring on T and/or S       (T => fill namsbc_ssr)
   ln_rnf      = .false.   !  runoffs                                   (T => fill namsbc_rnf)
   ln_apr_dyn  = .true.   !  Patm gradient added in ocean & ice Eqs.   (T => fill namsbc_apr )
   nn_fwb      = 0         !  FreshWater Budget:
   nn_lsm      = 0
   !                       !    =2 annual global mean of e-p-r set to zero
   ln_wave     = .false.
/
!-----------------------------------------------------------------------
&namsbc_flx    !   surface boundary condition : flux formulation
!-----------------------------------------------------------------------
/
!-----------------------------------------------------------------------
&namsbc_blk    !   namsbc_blk  generic Bulk formula                     (ln_blk =T)
!-----------------------------------------------------------------------
   ln_NCAR      = .false.    ! "NCAR"      algorithm   (Large and Yeager 2008)
   ln_COARE_3p0 = .false.    ! "COARE 3.0" algorithm   (Fairall et al. 2003)
   ln_COARE_3p6 = .false.    ! "COARE 3.6" algorithm   (Edson et al. 2013)
   ln_ECMWF     = .false.     ! "ECMWF"     algorithm   (IFS cycle 45r1)
   ln_ANDREAS   = .false.    ! "ANDREAS"   algorithm   (Andreas et al. 2015)
   ln_MFS      = .true.
   rn_pfac    = 1.          !  multipl. factor for precipitation (total & snow)
   rn_efac    = 1.          !  multipl. factor for evaporation (0. or 1.)
   ln_crt_fbk = .false.     !  Add surface current feedback to the wind stress (Renault et al. 2020, doi: 10.1029/2019MS361715)
   rn_stau_a = -2.9e-3   !     Alpha from eq. 10: Stau = Alpha * Wnd + Beta
   rn_stau_b =  8.0e-3   !     Beta
   ln_humi_sph = .false. !  humidity "sn_humi" is specific humidity  [kg/kg]
   ln_humi_dpt = .true.  !  humidity "sn_humi" is dew-point temperature [K]
   ln_humi_rlh = .false. !  humidity "sn_humi" is relative humidity     [%]
   ln_tair_pot = .false. !  air temperature read in "sn_tair" is already POTENTIAL TEMPERATURE, NOT ABSOLUTE (ECMWF => ln_tair_pot=.false.)
   cn_dir      = './'      !  root directory for the bulk data location
   !___________!_________________________!___________________!___________!_____________!________!___________!______________________________________!__________!_______________!
   !           !  file name              ! frequency (hours) ! variable  ! time interp.!  clim  ! 'yearly'/ !       weights filename               ! rotation ! land/sea mask !
   !           !                         !  (if <0  months)  !   name    !   (logical) !  (T/F) ! 'monthly' !                                      ! pairing  !    filename   !
   sn_wndi     = 'atmfrc              '       ,    6.        , 'u10     ',   .true.   , .false. , 'daily'  ,             ''  ,                         ''       , ''
   sn_wndj     = 'atmfrc              '       ,    6.        , 'v10     ',   .true.   , .false. , 'daily'  ,             ''  ,                         ''       , ''
   sn_tair     = 'atmfrc              '       ,    6.        , 't2      ',   .true.   , .false. , 'daily'  ,             ''  ,                         ''       , ''
   sn_humi     = 'atmfrc              '       ,    6.        , 'rh      ',   .true.   , .false. , 'daily'  ,             ''  ,                         ''       , ''
   sn_prec     = 'atmfrc              '       ,    6.        , 'precip  ',   .true.   , .false. , 'daily'  ,             ''  ,                         ''       , ''
   sn_slp      = 'atmfrc              '       ,    6.        , 'msl     ',   .true.   , .false. , 'daily'  ,             ''  ,                         ''       , ''
   sn_cc       = 'atmfrc              '       ,    6.        , 'clc     ',   .true.   , .false. , 'daily'  ,             ''  ,                         ''       , ''
   sn_qsr      = 'NOT USED'                   ,   24.        , 'SWDN_MOD',   .false.  , .true. , 'yearly'  , 'weights_core_orca2_bilinear_noc.nc' , ''       , ''
   sn_qlw      = 'NOT USED'                   ,   24.        , 'LWDN_MOD',   .false.  , .true. , 'yearly'  , 'weights_core_orca2_bilinear_noc.nc' , ''       , ''
   sn_snow     = 'NOT USED'                   ,   -1.        , 'SNOW'    ,   .false.  , .true. , 'yearly'  , 'weights_core_orca2_bilinear_noc.nc' , ''       , ''
   sn_uoatm    = 'NOT USED'                   ,    6.        , 'UOATM'   ,   .false.  , .true. , 'yearly'  , 'weights_core_orca2_bilinear_noc.nc' , 'Uoceatm', ''
   sn_voatm    = 'NOT USED'                   ,    6.        , 'VOATM'   ,   .false.  , .true. , 'yearly'  , 'weights_core_orca2_bilinear_noc.nc' , 'Voceatm', ''
   sn_hpgi     = 'NOT USED'                   ,   24.        , 'uhpg'    ,   .false.  , .false., 'monthly' , 'weights_ERAI3D_F128_2_ORCA2_bicubic', 'UG'     , ''
   sn_hpgj     = 'NOT USED'                   ,   24.        , 'vhpg'    ,   .false.  , .false., 'monthly' , 'weights_ERAI3D_F128_2_ORCA2_bicubic', 'VG'     , ''
/
!-----------------------------------------------------------------------
&namtra_qsr    !   penetrative solar radiation                          (ln_traqsr =T)
!-----------------------------------------------------------------------
   ln_qsr_rgb  = .false.      !  RGB light penetration (Red-Green-Blue)
   ln_qsr_2bd  = .true.       !  2BD light penetration (two bands)
   rn_abs      =   0.58       !  RGB & 2BD: fraction absorbed in the very near surface
   rn_si0      =   0.35       !  RGB & 2BD: shortess depth of extinction
   rn_si1      =   23.0       !  2BD : longest depth of extinction
   nn_chldta   =      0      !  RGB : Chl data (=1) or cst value (=0)
/
!-----------------------------------------------------------------------
&namsbc_ssr    !   surface boundary condition : sea surface restoring   (ln_ssr =T)
!-----------------------------------------------------------------------
   nn_sstr     =     1     !  add a retroaction term to the surface heat flux (=1) or not (=0)
      rn_dqdt     = -110.    !  magnitude of the retroaction on temperature   [W/m2/K]
      nn_hssr     =  4       !  Hours around the SST obs for the relaxation term
      nn_ssr_wgts =  2       !  Use weights on the relaxation (stronger around obs time) (0=no weight,1=gaussian,2=cubic)
      ln_esst     =  .false. !  Only relax SST if error (read in sn_esst) is less than rn_esst
      rn_esst     =  0       !  Maximum of SST error for relaxation

   nn_sssr     =     0     !  add a damping term to the surface freshwater flux (=2)
      !                      !  or to SSS only (=1) or no damping term (=0)
      rn_deds     =  0       !  magnitude of the damping on salinity   [mm/day]
      ln_sssr_bnd =  .false. !  flag to bound erp term (associated with nn_sssr=2)
      rn_sssr_bnd =   0.e0   !  ABS(Max/Min) value of the damping erp term [mm/day]
      nn_sssr_ice =   0      ! control of sea surface restoring under sea-ice
                             ! 0 = no restoration under ice : * (1-icefrac)
                             ! 1 = restoration everywhere
                             ! >1 = enhanced restoration under ice : 1+(nn_icedmp-1)*icefrac

   cn_dir      = './'      !  root directory for the SST/SSS data location
   !___________!_________________________!___________________!___________!_____________!________!___________!__________________!__________!_______________!
   !           !  file name              ! frequency (hours) ! variable  ! time interp.!  clim  ! 'yearly'/ ! weights filename ! rotation ! land/sea mask !
   !           !                         !  (if <0  months)  !   name    !   (logical) !  (T/F) ! 'monthly' !                  ! pairing  !    filename   !
   sn_sst      = 'sst_data'              ,        24.        ,  'analysed_sst'  ,    .true.  , .false. , 'daily'   ,    ''       ,    ''    ,     ''
   sn_sss      = 'sss_data'              ,        -1.        ,  'sss'           ,    .true.  , .true.  , 'yearly'  ,    ''       ,    ''    ,     ''
   sn_esst     = 'sst_data'              ,        24.        ,  'analysis_error',    .true.  , .false. , 'daily'   ,    ''       ,    ''    ,     ''
/
!-----------------------------------------------------------------------
&namsbc_rnf    !   runoffs                                              (ln_rnf =T)
!-----------------------------------------------------------------------
   ln_rnf_mouth = .true.    !  specific treatment at rivers mouths
      rn_hrnf     =  0.e0     !  depth over which enhanced vertical mixing is used    (ln_rnf_mouth=T)
      rn_avt_rnf  =   1.e-3    !  value of the additional vertical mixing coef. [m2/s] (ln_rnf_mouth=T)
   rn_rfact     =   1.e0    !  multiplicative factor for runoff
   ln_rnf_depth = .false.   !  read in depth information for runoff
   ln_rnf_tem   = .false.   !  read in temperature information for runoff
   ln_rnf_sal   = .true.    !  read in salinity information for runoff
   ln_rnf_icb   = .false.   !  read iceberg flux
   ln_rnf_depth_ini = .false.  ! compute depth at initialisation from runoff file
      rn_rnf_max  = 5.735e-4   !  max value of the runoff climatologie over global domain ( ln_rnf_depth_ini = .true )
      rn_dep_max  = 150.       !  depth over which runoffs is spread ( ln_rnf_depth_ini = .true )
      nn_rnf_depth_file = 0    !  create (=1) a runoff depth file or not (=0)

!   cn_dir       = '/data/oda/ec04916/PHYSW_DATA/EAS6/NEMO_DATA0/'      ! for MED river as climatology
!   cn_dir       = '/data/oda/am13420/NEMOv4.2_MED24/'                 ! for MED river as climatology with DRD as river
   cn_dir       = './'      !  root directory for the location of the runoff files
  !___________!_________________________!___________________!___________!_____________!________!___________!__________________!__________!_______________!
   !           !  file name              ! frequency (hours) ! variable  ! time interp.!  clim  ! 'yearly'/ ! weights filename ! rotation ! land/sea mask !
   !           !                         !  (if <0  months)  !   name    !   (logical) !  (T/F) ! 'monthly' !                  ! pairing  !    filename   !
   sn_rnf      = 'runoff_1d_nomask'   ,        24        , 'sorunoff' ,   .true.    , .false. , 'yearly'  , ''              , ''       , ''
   sn_cnf      = 'runoff_1d_nomask'   ,         0.       , 'river_msk',   .false.   , .false. , 'yearly'  , ''              , ''       , ''
   sn_s_rnf    = 'runoff_1d_nomask'   ,        24        , 's_river'  ,   .true.    , .false. , 'yearly'  , ''              , ''       , ''
   sn_t_rnf    = 'NOT USED'           ,        24.       , 'rotemper' ,   .true.    , .true.  , 'yearly'  , ''              , ''       , ''
   sn_i_rnf    = 'NOT USED'           ,        24.       , 'xxxxxxxx' ,   .true.    , .true.  , 'yearly'  , ''              , ''       , ''
   sn_dep_rnf  = 'NOT USED'           ,       -12.       , 'rodepth'  ,   .false.   , .true.  , 'yearly'  , ''              , ''       , ''
/
!-----------------------------------------------------------------------
&namsbc_apr    !   Atmospheric pressure used as ocean forcing           (ln_apr_dyn =T)
!-----------------------------------------------------------------------
  rn_pref     = 101000.   !  reference atmospheric pressure   [N/m2]/
   ln_ref_apr  = .false.   !  ref. pressure: global mean Patm (T) or a constant (F)
   ln_apr_obc  = .false.   !  inverse barometer added to OBC ssh data

   cn_dir = './'        !  root directory for the Patm data location
   !___________!_________________________!___________________!___________!_____________!________!___________!__________________!__________!_______________!
   !           !  file name              ! frequency (hours) ! variable  ! time interp.!  clim  ! 'yearly'/ ! weights filename ! rotation ! land/sea mask !
   !           !                         !  (if <0  months)  !   name    !   (logical) !  (T/F) ! 'monthly' !                  ! pairing  !    filename   !
   sn_apr      = 'atmfrc'                ,         6         ,     'msl' ,    .true.   , .false., 'daily'   ,      '' ,            '' ,         ''
/
!!======================================================================
!!               ***  Lateral boundary condition  ***                 !!
!!                                                                    !!
!!   namlbc        lateral momentum boundary condition                  (default: NO selection)
!!   namagrif      agrif nested grid ( read by child model only )       ("key_agrif")
!!   nam_tide      Tidal forcing                                        (default: OFF)
!!   nambdy        Unstructured open boundaries                         (default: OFF)
!!   nambdy_dta    Unstructured open boundaries - external data         (see  nambdy)
!!   nambdy_tide   tidal forcing at open boundaries                     (default: OFF)
!!======================================================================
!
!-----------------------------------------------------------------------
&namlbc        !   lateral momentum boundary condition                  (default: NO selection
!-----------------------------------------------------------------------
   rn_shlat    =     2     !  no slip
   ln_vorlat   = .true.    !  consistency of vorticity boundary condition with analytical eqs.
/
!-----------------------------------------------------------------------
&nam_tide      !   tide parameters                                      (default: OFF)
!-----------------------------------------------------------------------
   ln_tide       = .true.      ! Activate tides
   ln_tide_dia   = .flase.    !  Enable tidal diagnostic output
   ln_tide_pot   = .true.     !  use tidal potential forcing
         rn_tide_gamma = 0.7                   ! Tidal tilt factor
   sn_tide_cnames(1) = 'Q1'   !  name of constituent
   sn_tide_cnames(2) = 'K1'
   sn_tide_cnames(3) = 'P1'
   sn_tide_cnames(4) = 'O1'
   sn_tide_cnames(5) = 'N2'
   sn_tide_cnames(6) = 'M2'
   sn_tide_cnames(7) = 'S2'
   sn_tide_cnames(8) = 'K2'
/
!-----------------------------------------------------------------------
&nambdy        !  unstructured open boundaries                          (default: OFF)
!-----------------------------------------------------------------------
   ln_bdy         = .true.       !  Use unstructured open boundaries
   nb_bdy         = 1        !  number of open boundary sets
   ln_coords_file = .true.   !  =T : read bdy coordinates from file
   cn_coords_file = 'coordinates.bdy.nc' !  bdy coordinates files
   !
   cn_dyn2d      = 'flather'
   nn_dyn2d_dta  =  0        !  = 0, bdy data are equal to the initial state
   cn_dyn3d      = 'specified'
   nn_dyn3d_dta  =  0
   cn_tra        = 'specified'
   nn_tra_dta    =  0 
   nn_rimwidth   =  1.        !  width of the relaxation zone
   ln_vol        = .false.    !  total volume correction (see nn_volctl parameter)
   nn_volctl     =  1         !  = 0, the total water flux across open boundaries is zero
/
!-----------------------------------------------------------------------
&nambdy_dta    !  open boundaries - external data                       
!-----------------------------------------------------------------------
   ln_zinterp  = .false.      !  T if a vertical interpolation is required. Variables gdep[tuv] and e3[tuv] must exist in the file
   !                          !  automatically defined to T if the number of vertical levels in bdy dta /= jpk
   ln_full_vel = .false.      !  T if [uv]3d are "full" velocities and not only its baroclinic components
   !                          !  in this case, baroclinic and barotropic velocities will be recomputed -> [uv]2d not needed
   !
   cn_dir      = './'
   !___________!_________________________!___________________!___________!_____________!________!___________!__________________!__________!_______________!
   !           !  file name              ! frequency (hours) ! variable  ! time interp.!  clim  ! 'yearly'/ ! weights filename ! rotation ! land/sea mask !
   !           !                         !  (if <0  months)  !   name    !   (logical) !  (T/F) ! 'monthly' !                  ! pairing  !    filename   !
   bn_ssh =     'mfs_bdyT_u2d' ,         24        , 'sossheig' ,     .false.      , .false. ,  'daily'  ,    ''    ,   ''     , ''
   bn_u2d =     'mfs_bdyU_u2d' ,         24        , 'vobtcrtx' ,     .false.      , .false. ,  'daily'  ,    ''    ,   ''     , ''
   bn_v2d =     'mfs_bdyV_u2d' ,         24        , 'vobtcrty' ,     .false.      , .false. ,  'daily'  ,    ''    ,   ''     , ''
   bn_u3d  =    'mfs_bdyU_u3d' ,         24        , 'vozocrtx' ,     .false.      , .false. ,  'daily'  ,    ''    ,   ''     , ''
   bn_v3d  =    'mfs_bdyV_u3d' ,         24        , 'vomecrty' ,     .false.      , .false. ,  'daily'  ,    ''    ,   ''     , ''
   bn_tem  =    'mfs_bdyT_tra' ,         24        , 'votemper' ,     .false.      , .false. ,  'daily'  ,    ''    ,   ''     , ''
   bn_sal  =    'mfs_bdyT_tra' ,         24        , 'vosaline' ,     .false.      , .false. ,  'daily'  ,    ''    ,   ''     , ''
   bn_a_i  =    'NOT USED'     ,         24.       , 'siconc'  ,    .true.   , .false.,  'daily'  ,    ''            ,   ''     ,     ''
   bn_h_i  =    'NOT USED'     ,         24.       , 'sithic'  ,    .true.   , .false.,  'daily'  ,    ''            ,   ''     ,     ''
   bn_h_s  =    'NOT USED'     ,         24.       , 'snthic'  ,    .true.   , .false.,  'daily'  ,    ''            ,   ''     ,     ''
   bn_t_i  =    'NOT USED'     ,         24.       , 'sitemp'  ,    .true.   , .false.,  'daily'  ,    ''            ,   ''     ,     ''
   bn_t_s  =    'NOT USED'     ,         24.       , 'sntemp'  ,    .true.   , .false.,  'daily'  ,    ''            ,   ''     ,     ''
   bn_tsu  =    'NOT USED'     ,         24.       , 'sittop'  ,    .true.   , .false.,  'daily'  ,    ''            ,   ''     ,     ''
   bn_s_i  =    'NOT USED'     ,         24.       , 'sisalt'  ,    .true.   , .false.,  'daily'  ,    ''            ,   ''     ,     ''
   bn_aip  =    'NOT USED'     ,         24.       , 'siapnd'  ,    .true.   , .false.,  'daily'  ,    ''            ,   ''     ,     ''
   bn_hip  =    'NOT USED'     ,         24.       , 'sihpnd'  ,    .true.   , .false.,  'daily'  ,    ''            ,   ''     ,     ''
   bn_hil  =    'NOT USED'     ,         24.       , 'sihlid'  ,    .true.   , .false.,  'daily'  ,    ''            ,   ''     ,     ''
/
!-----------------------------------------------------------------------
&nambdy_tide   !  tidal forcing at open boundaries
!-----------------------------------------------------------------------
   filtide      = 'bdydta/amm12_bdytide_'         !  file name root of tidal forcing files
/
!!======================================================================
!!                ***  Top/Bottom boundary condition  ***             !!
!!                                                                    !!
!!   namdrg        top/bottom drag coefficient                          (default: NO selection)
!!   namdrg_top    top    friction                                      (ln_drg_OFF =F & ln_isfcav=T)
!!   namdrg_bot    bottom friction                                      (ln_drg_OFF =F)
!!   nambbc        bottom temperature boundary condition                (default: OFF)
!!   nambbl        bottom boundary layer scheme                         (default: OFF)
!!======================================================================
!
!-----------------------------------------------------------------------
&namdrg        !   top/bottom drag coefficient                          (default: NO selection)
!-----------------------------------------------------------------------
   ln_loglayer = .true.     !  logarithmic drag: Cd = vkarmn/log(z/z0) |U|
/
!-----------------------------------------------------------------------
&namdrg_top    !   TOP friction                                         (ln_drg_OFF =F & ln_isfcav=T)
!-----------------------------------------------------------------------
   rn_Cd0      =  2.5.e-3  !  drag coefficient [-]
   rn_Cdmax    =  1.e-1    !  drag value maximum [-] (logarithmic drag)
   rn_ke0      =  0.0      !  background kinetic energy  [m2/s2] (non-linear cases)
   rn_z0       =  3.0e-3   !  roughness [m] (ln_loglayer=T)
   ln_boost    = .false.   !  =T regional boost of Cd0 ; =F constant
      rn_boost =  50.         !  local boost factor  [-]
/
!-----------------------------------------------------------------------
&namdrg_bot    !   BOTTOM friction                                      (ln_drg_OFF =F)
!-----------------------------------------------------------------------
   rn_Cd0      =  1.e-5    !  drag coefficient [-]
   rn_Cdmax    =  1.e-1    !  drag value maximum [-] (logarithmic drag)
   rn_ke0      =  0   !  background kinetic energy  [m2/s2] (non-linear cases)
   rn_z0       =  1.e-2    !  roughness [m] (ln_loglayer=T)
   ln_boost    = .false.   !  =T regional boost of Cd0 ; =F constant
      rn_boost =  50.         !  local boost factor  [-]
/
!-----------------------------------------------------------------------
&nambbl        !   bottom boundary layer scheme                         (default: OFF)
!-----------------------------------------------------------------------
   ln_trabbl   = .false.   !  Bottom Boundary Layer parameterisation flag
      nn_bbl_ldf  =  0        !  diffusive bbl (=1)   or not (=0)
      nn_bbl_adv  =  0        !  advective bbl (=1/2) or not (=0)
      rn_ahtbbl   =  1000.    !  lateral mixing coefficient in the bbl  [m2/s]
      rn_gambbl   =  10.      !  advective bbl coefficient                 [s]
/
!!======================================================================
!!                        Tracer (T & S) namelists                    !!
!!                                                                    !!
!!   nameos        equation of state                                    (default: NO selection)
!!   namtra_adv    advection scheme                                     (default: NO selection)
!!   namtra_ldf    lateral diffusion scheme                             (default: NO selection)
!!   namtra_mle    mixed layer eddy param. (Fox-Kemper param.)          (default: OFF)
!!   namtra_eiv    eddy induced velocity param.                         (default: OFF)